Info: SIMULATION PARAMETERS:
Info: TIMESTEP               2
Info: NUMBER OF STEPS        0
Info: STEPS PER CYCLE        10
Info: PERIODIC CELL BASIS 1  42 0 0
Info: PERIODIC CELL BASIS 2  0 44 0
Info: PERIODIC CELL BASIS 3  0 0 48
Info: PERIODIC CELL CENTER   0 0 0
Info: WRAPPING ALL CLUSTERS AROUND PERIODIC BOUNDARIES ON OUTPUT.
Info: FIRST LDB TIMESTEP     50
Info: LAST LDB TIMESTEP     -1
Info: HOM BACKGROUND SCALING 1
Info: PME BACKGROUND SCALING 1
Info: MIN ATOMS PER PATCH    40
Info: EMPTY PATCH LOAD       40 ATOMS
Info: INITIAL TEMPERATURE    310
Info: CENTER OF MASS MOVING INITIALLY? NO
Info: DIELECTRIC             1
Info: EXCLUDE                SCALED ONE-FOUR
Info: 1-4 ELECTROSTATICS SCALED BY 1
Info: MODIFIED 1-4 VDW PARAMETERS WILL BE USED
Info: DCD FILENAME           ubq_wb_eq.dcd
Info: DCD FREQUENCY          50
Info: DCD FIRST STEP         50
Info: DCD FILE WILL CONTAIN UNIT CELL DATA
Info: XST FILENAME           ubq_wb_eq.xst
Info: XST FREQUENCY          500
Info: NO VELOCITY DCD OUTPUT
Info: NO FORCE DCD OUTPUT
Info: OUTPUT FILENAME        ubq_wb_eq
Info: BINARY OUTPUT FILES WILL BE USED
Info: RESTART FILENAME       ubq_wb_eq.restart
Info: RESTART FREQUENCY      1000
Info: SWITCHING ACTIVE
Info: SWITCHING ON           10
Info: SWITCHING OFF          12
Info: PAIRLIST DISTANCE      14
Info: PAIRLIST SHRINK RATE   0.01
Info: PAIRLIST GROW RATE     0.01
Info: PAIRLIST TRIGGER       0.3
Info: PAIRLISTS PER CYCLE    2
Info: PAIRLISTS ENABLED
Info: MARGIN                 0.495
Info: HYDROGEN GROUP CUTOFF  2.5
Info: PATCH DIMENSION        16.995
Info: ENERGY OUTPUT STEPS    10
Info: ENERGY EVALUATION STEPS    10
Info: OUTPUT ENERGY PRECISION 4
Info: OUPUT ENERGY PRECISION 4
Info: CROSSTERM ENERGY INCLUDED IN DIHEDRAL
Info: TIMING OUTPUT STEPS    100
Info: PRESSURE OUTPUT STEPS  500
Info: LANGEVIN DYNAMICS ACTIVE
Info: LANGEVIN TEMPERATURE   310
Info: LANGEVIN USING BBK INTEGRATOR
Info: LANGEVIN DAMPING COEFFICIENT IS 1 INVERSE PS
Info: LANGEVIN DYNAMICS NOT APPLIED TO HYDROGENS
Info: LANGEVIN PISTON PRESSURE CONTROL ACTIVE
Info:        TARGET PRESSURE IS 1.01325 BAR
Info:     OSCILLATION PERIOD IS 100 FS
Info:             DECAY TIME IS 50 FS
Info:     PISTON TEMPERATURE IS 310 K
Info:       PRESSURE CONTROL IS GROUP-BASED
Info:    INITIAL STRAIN RATE IS 0 0 0
Info:       CELL FLUCTUATION IS ISOTROPIC
Info: PARTICLE MESH EWALD (PME) ACTIVE
Info: PME TOLERANCE               1e-06
Info: PME EWALD COEFFICIENT       0.257952
Info: PME INTERPOLATION ORDER     4
Info: PME GRID DIMENSIONS         44 44 48
Info: PME MAXIMUM GRID SPACING    1
Info: FULL ELECTROSTATIC EVALUATION FREQUENCY      2
Info: USING VERLET I (r-RESPA) MTS SCHEME.
Info: C1 SPLITTING OF LONG RANGE ELECTROSTATICS
Info: PLACING ATOMS IN PATCHES BY HYDROGEN GROUPS
Info: RIGID BONDS TO HYDROGEN : ALL
Info:         ERROR TOLERANCE : 1e-08
Info:          MAX ITERATIONS : 100
Info: RIGID WATER USING SETTLE ALGORITHM
Info: RANDOM NUMBER SEED     1723169016
Info: USE HYDROGEN BONDS?    NO
Info: COORDINATE PDB         ubq_cent.pdb
Info: STRUCTURE FILE         ubq_wb.psf
Info: PARAMETER file: CHARMM format!
Info: PARAMETERS             par_all27_prot_lipid.inp
Info: USING ARITHMETIC MEAN TO COMBINE L-J SIGMA PARAMETERS
Info: SUMMARY OF PARAMETERS:
Info: 180 BONDS
Info: 447 ANGLES
Info: 566 DIHEDRAL
Info: 46 IMPROPER
Info: 6 CROSSTERM
Info: 119 VDW
Info: 0 VDW_PAIRS
Info: 0 NBTHOLE_PAIRS
Info: STRUCTURE SUMMARY:
Info: 7456 ATOMS
Info: 5387 BONDS
Info: 4332 ANGLES
Info: 3293 DIHEDRALS
Info: 204 IMPROPERS
Info: 74 CROSSTERMS
Info: 0 EXCLUSIONS
Info: 6854 RIGID BONDS
Info: 15514 DEGREES OF FREEDOM
Info: 2677 HYDROGEN GROUPS
Info: 4 ATOMS IN LARGEST HYDROGEN GROUP
Info: 2677 MIGRATION GROUPS
Info: 4 ATOMS IN LARGEST MIGRATION GROUP
Info: TOTAL MASS = 45946.8 amu
Info: TOTAL CHARGE = 1.00955e-06 e
Info: MASS DENSITY = 0.860145 g/cm^3
Info: ATOM DENSITY = 0.0840548 atoms/A^3
Info: ADDED 12983 IMPLICIT EXCLUSIONS
Info: NONBONDED TABLE R-SQUARED SPACING: 0.0625
Info: NONBONDED TABLE SIZE: 769 POINTS
Info: REMOVING COM VELOCITY 0.0282271 0.0506947 0.160955
Info: Use 3D box decompostion in PME FFT.
Info: Updated CUDA force table with 4096 elements.
Info: Updated CUDA LJ table with 119 x 119 elements.
Info: Found 213 unique exclusion lists needing 616 bytes
TCL: Minimizing for 500 steps
ETITLE: TS BOND ANGLE DIHED IMPRP ELECT VDW BOUNDARY MISC KINETIC TOTAL TEMP POTENTIAL TOTAL3 TEMPAVG PRESSURE GPRESSURE VOLUME PRESSAVG GPRESSAVG
ENERGY: 0 10748114.1273 8660.2923 504.8581 22753.9391 -16409.1399 121074.2220 0.0000 0.0000 0.0000 10884698.2987 0.0000 10884698.2987 10884698.2987 0.0000 -86.2063 4571.3857 88704.0000 -86.2063 4571.3857
ENERGY: 100 1812683.3457 27765.5074 1041.3194 871.1127 -18254.3876 58554.0043 0.0000 0.0000 0.0000 1882660.9020 0.0000 1882660.9020 1882660.9020 0.0000 -319.2658 2163.8794 88704.0000 -319.2658 2163.8794
ENERGY: 200 248729.9305 32707.9554 1154.7277 1390.9544 -19782.9147 36642.0953 0.0000 0.0000 0.0000 300842.7486 0.0000 300842.7486 300842.7486 0.0000 -278.1633 -5486.4648 88704.0000 -278.1633 -5486.4648
ENERGY: 300 11844.7717 13765.0646 1111.0388 703.1690 -21258.6268 7352.2369 0.0000 0.0000 0.0000 13517.6541 0.0000 13517.6541 13517.6541 0.0000 -203.0707 -12372.1280 88704.0000 -203.0707 -12372.1280
ENERGY: 400 2337.9312 5450.6735 1057.0684 362.5706 -22046.5025 3486.6425 0.0000 0.0000 0.0000 -9351.6162 0.0000 -9351.6162 -9351.6162 0.0000 -170.4241 -13098.8894 88704.0000 -170.4241 -13098.8894
ENERGY: 500 685.3156 2876.5579 961.6550 182.5522 -22777.2653 2111.0277 0.0000 0.0000 0.0000 -15960.1568 0.0000 -15960.1568 -15960.1568 0.0000 -147.7763 -13794.5163 88704.0000 -147.7763 -13794.5163
TCL: Running for 2000 steps
ETITLE: TS BOND ANGLE DIHED IMPRP ELECT VDW BOUNDARY MISC KINETIC TOTAL TEMP POTENTIAL TOTAL3 TEMPAVG PRESSURE GPRESSURE VOLUME PRESSAVG GPRESSAVG
ENERGY: 500 685.3156 2876.5579 961.6550 182.5522 -22777.2653 2111.0277 0.0000 0.0000 4746.3962 -11213.7606 307.9148 -15960.1569 -11242.0577 307.9148 462.9390 486.9519 88704.0000 462.9390 486.9519
ENERGY: 900 364.9000 1283.5947 600.5598 77.7342 -23639.0846 1789.5300 0.0000 0.0000 6112.6418 -13410.1240 396.5478 -19522.7658 -13379.1729 395.2656 115.3512 137.3696 82324.1434 64.2380 66.1052
ENERGY: 1300 330.5467 1043.9523 428.0755 55.3132 -23795.5155 1568.7290 0.0000 0.0000 5846.4078 -14522.4909 379.2763 -20368.8988 -14493.2829 375.4264 -97.0547 -73.0547 78701.8179 -2.5380 -2.1838
ENERGY: 1700 302.1342 992.5708 432.0617 58.8525 -24191.2316 1654.9766 0.0000 0.0000 5551.8778 -15198.7580 360.1691 -20750.6358 -15177.4557 355.4992 -55.8757 -47.7778 76999.4766 201.6103 202.1424
ENERGY: 2100 272.9553 921.7200 405.4598 54.9478 -24240.7398 1560.7074 0.0000 0.0000 5453.1722 -15571.7774 353.7658 -21024.9495 -15547.4551 350.9136 -134.9578 -100.1924 75945.3753 -106.8034 -107.6688
ENERGY: 2500 274.7964 871.0374 416.0210 48.0197 -24414.5191 1508.0273 0.0000 0.0000 5371.1130 -15925.5042 348.4423 -21296.6173 -15900.7260 345.6461 -745.0855 -712.8049 75264.9273 57.6015 56.4226
